clock { timezone  EST+5EDT; starttime '2016-08-01 00:00:00'; stoptime '2016-08-08 00:00:00'; }

#set relax_naming_rules=1;
#set iteration_limit=9;

module powerflow { solver_method NR; }
module tape;
module reliability;

object node:1 {
	name            node_1; // NodeID: UID_39-1-13_FDR
	phases          ABC;
	nominal_voltage 7621.0;
	bustype         SWING;
}

object node:2 {
	name            node_2; // NodeID: UID_39-1-2B
	phases          ABC;
	nominal_voltage 7621.0;
}

object node:3 {
	name            node_3; // NodeID: UID_BUS_39-1T_ALLENDALE
	phases          ABC;
	nominal_voltage 7621.0;
}

object node:4 {
	name            node_4; // NodeID: UID_FDR_CAB_39-1-13
	phases          ABC;
	nominal_voltage 7621.0;
}

object node:5 {
	name            node_5; // NodeID: 1602
	phases          ABC;
	nominal_voltage 7621.0;
}

object node:6 {
	name            node_6; // NodeID: 5360934
	phases          ABC;
	nominal_voltage 7621.0;
}

object node:7 {
	name            node_7; // NodeID: 5336223
	phases          ABC;
	nominal_voltage 7621.0;
}

object node:8 {
	name            node_8; // NodeID: 5076457
	phases          ABC;
	nominal_voltage 7621.0;
}

object node:9 {
	name            node_9; // NodeID: 5068744
	phases          ABC;
	nominal_voltage 7621.0;
}

object node:10 {
	name            node_10; // NodeID: 5070033
	phases          ABC;
	nominal_voltage 7621.0;
}

object node:11 {
	name            node_11; // NodeID: 5071333
	phases          ABC;
	nominal_voltage 7621.0;
}

object node:12 {
	name            node_12; // NodeID: 5072611
	phases          ABC;
	nominal_voltage 7621.0;
}

object node:13 {
	name            node_13; // NodeID: 5073903
	phases          ABC;
	nominal_voltage 7621.0;
}

object node:14 {
	name            node_14; // NodeID: 5075184
	phases          ABC;
	nominal_voltage 7621.0;
}

object node:15 {
	name            node_15; // NodeID: 5084026
	phases          ABC;
	nominal_voltage 7621.0;
}

object node:17 {
	name            node_17; // NodeID: 5087818
	phases          ABC;
	nominal_voltage 7621.0;
}

object node:18 {
	name            node_18; // NodeID: 5089092
	phases          ABC;
	nominal_voltage 7621.0;
}

object node:19 {
	name            node_19; // NodeID: 5090346
	phases          ABC;
	nominal_voltage 7621.0;
}

object node:20 {
	name            node_20; // NodeID: 5095360
	phases          B;
	nominal_voltage 7621.0;
}

object node:21 {
	name            node_21; // NodeID: 5096613
	phases          B;
	nominal_voltage 7621.0;
}

object node:22 {
	name            node_22; // NodeID: 5099089
	phases          B;
	nominal_voltage 7621.0;
}

object node:23 {
	name            node_23; // NodeID: 5104078
	phases          B;
	nominal_voltage 7621.0;
}

object node:24 {
	name            node_24; // NodeID: 8216209
	phases          B;
	nominal_voltage 7621.0;
}

object node:25 {
	name            node_25; // NodeID: 8232810
	phases          B;
	nominal_voltage 7621.0;
}

object node:26 {
	name            node_26; // NodeID: 5107758
	phases          B;
	nominal_voltage 7621.0;
}

object node:27 {
	name            node_27; // NodeID: 8216236
	phases          B;
	nominal_voltage 7621.0;
}

object node:28 {
	name            node_28; // NodeID: 8232824
	phases          B;
	nominal_voltage 7621.0;
}

object node:29 {
	name            node_29; // NodeID: 5108982
	phases          B;
	nominal_voltage 7621.0;
}

object node:30 {
	name            node_30; // NodeID: 5097853
	phases          B;
	nominal_voltage 7621.0;
}

object node:31 {
	name            node_31; // NodeID: 5101583
	phases          B;
	nominal_voltage 7621.0;
}

object node:32 {
	name            node_32; // NodeID: 5105307
	phases          B;
	nominal_voltage 7621.0;
}

object node:33 {
	name            node_33; // NodeID: 8216222
	phases          B;
	nominal_voltage 7621.0;
}

object node:35 {
	name            node_35; // NodeID: 5094109
	phases          ABC;
	nominal_voltage 7621.0;
}

object node:36 {
	name            node_36; // NodeID: 5113857
	phases          ABC;
	nominal_voltage 7621.0;
}

object node:37 {
	name            node_37; // NodeID: 5116281
	phases          ABC;
	nominal_voltage 7621.0;
}

object node:38 {
	name            node_38; // NodeID: 5117503
	phases          ABC;
	nominal_voltage 7621.0;
}

object node:39 {
	name            node_39; // NodeID: 5118717
	phases          C;
	nominal_voltage 7621.0;
}

object node:40 {
	name            node_40; // NodeID: 5128367
	phases          C;
	nominal_voltage 7621.0;
}

object node:41 {
	name            node_41; // NodeID: 5130748
	phases          C;
	nominal_voltage 7621.0;
}

object node:42 {
	name            node_42; // NodeID: 5131944
	phases          C;
	nominal_voltage 7621.0;
}

object node:43 {
	name            node_43; // NodeID: 5133118
	phases          C;
	nominal_voltage 7621.0;
}

object node:44 {
	name            node_44; // NodeID: 5134302
	phases          C;
	nominal_voltage 7621.0;
}

object node:45 {
	name            node_45; // NodeID: 5135470
	phases          C;
	nominal_voltage 7621.0;
}

object node:46 {
	name            node_46; // NodeID: 5136640
	phases          C;
	nominal_voltage 7621.0;
}

object node:47 {
	name            node_47; // NodeID: 5137808
	phases          C;
	nominal_voltage 7621.0;
}

object node:48 {
	name            node_48; // NodeID: 5138972
	phases          C;
	nominal_voltage 7621.0;
}

object node:49 {
	name            node_49; // NodeID: 5140150
	phases          C;
	nominal_voltage 7621.0;
}

object node:50 {
	name            node_50; // NodeID: 5141324
	phases          C;
	nominal_voltage 7621.0;
}

object node:51 {
	name            node_51; // NodeID: 5142491
	phases          C;
	nominal_voltage 7621.0;
}

object node:52 {
	name            node_52; // NodeID: 5119934
	phases          ABC;
	nominal_voltage 7621.0;
}

object node:53 {
	name            node_53; // NodeID: 4940375
	phases          ABC;
	nominal_voltage 7621.0;
}

object node:54 {
	name            node_54; // NodeID: 4941888
	phases          ABC;
	nominal_voltage 7621.0;
}

object node:55 {
	name            node_55; // NodeID: 5715759
	phases          ABC;
	nominal_voltage 7621.0;
}

object node:56 {
	name            node_56; // NodeID: 5729312
	phases          A;
	nominal_voltage 7621.0;
}

object node:57 {
	name            node_57; // NodeID: 5728345
	phases          A;
	nominal_voltage 7621.0;
}

object node:58 {
	name            node_58; // NodeID: 5727397
	phases          A;
	nominal_voltage 7621.0;
}

object node:59 {
	name            node_59; // NodeID: 5727863
	phases          A;
	nominal_voltage 7621.0;
}

object node:60 {
	name            node_60; // NodeID: 4944915
	phases          A;
	nominal_voltage 7621.0;
}

object node:61 {
	name            node_61; // NodeID: 5143653
	phases          A;
	nominal_voltage 7621.0;
}

object node:62 {
	name            node_62; // NodeID: 5144816
	phases          A;
	nominal_voltage 7621.0;
}

object node:63 {
	name            node_63; // NodeID: 5730746
	phases          ABC;
	nominal_voltage 7621.0;
}

object node:64 {
	name            node_64; // NodeID: 5802582
	phases          ABC;
	nominal_voltage 7621.0;
}

object node:66 {
	name            node_66; // NodeID: 5738397
	phases          ABC;
	nominal_voltage 7621.0;
}

object node:67 {
	name            node_67; // NodeID: 5738876
	phases          ABC;
	nominal_voltage 7621.0;
}

object node:68 {
	name            node_68; // NodeID: 5739344
	phases          ABC;
	nominal_voltage 7621.0;
}

object node:69 {
	name            node_69; // NodeID: 5751158
	phases          ABC;
	nominal_voltage 7621.0;
}

object node:70 {
	name            node_70; // NodeID: 5665541
	phases          ABC;
	nominal_voltage 7621.0;
}

object node:71 {
	name            node_71; // NodeID: 5762563
	phases          ABC;
	nominal_voltage 7621.0;
}

object node:72 {
	name            node_72; // NodeID: 5763512
	phases          ABC;
	nominal_voltage 7621.0;
}

object node:73 {
	name            node_73; // NodeID: 5763976
	phases          ABC;
	nominal_voltage 7621.0;
}

object node:74 {
	name            node_74; // NodeID: 5764459
	phases          ABC;
	nominal_voltage 7621.0;
}

object node:75 {
	name            node_75; // NodeID: 5771738
	phases          ABC;
	nominal_voltage 7621.0;
}

object node:76 {
	name            node_76; // NodeID: 5772218
	phases          ABC;
	nominal_voltage 7621.0;
}

object node:77 {
	name            node_77; // NodeID: 5772698
	phases          ABC;
	nominal_voltage 7621.0;
}

object node:78 {
	name            node_78; // NodeID: 5773174
	phases          ABC;
	nominal_voltage 7621.0;
}

object node:79 {
	name            node_79; // NodeID: 5773646
	phases          ABC;
	nominal_voltage 7621.0;
}

object node:80 {
	name            node_80; // NodeID: 5783957
	phases          ABC;
	nominal_voltage 7621.0;
}

object node:81 {
	name            node_81; // NodeID: 5784420
	phases          ABC;
	nominal_voltage 7621.0;
}

object node:82 {
	name            node_82; // NodeID: 5784883
	phases          ABC;
	nominal_voltage 7621.0;
}

object node:83 {
	name            node_83; // NodeID: 5648696
	phases          ABC;
	nominal_voltage 7621.0;
}

object node:84 {
	name            node_84; // NodeID: 5619836
	phases          ABC;
	nominal_voltage 7621.0;
}

object node:85 {
	name            node_85; // NodeID: 5620445
	phases          ABC;
	nominal_voltage 7621.0;
}

object node:86 {
	name            node_86; // NodeID: UID_BBar_5499342
	phases          AC;
	nominal_voltage 7621.0;
}

object node:87 {
	name            node_87; // NodeID: 5621057
	phases          ABC;
	nominal_voltage 7621.0;
}

object node:88 {
	name            node_88; // NodeID: 5621672
	phases          ABC;
	nominal_voltage 7621.0;
}

object node:89 {
	name            node_89; // NodeID: 5622292
	phases          C;
	nominal_voltage 7621.0;
}

object node:90 {
	name            node_90; // NodeID: 5622887
	phases          C;
	nominal_voltage 7621.0;
}

object node:91 {
	name            node_91; // NodeID: 5624724
	phases          C;
	nominal_voltage 7621.0;
}

object node:92 {
	name            node_92; // NodeID: 5649270
	phases          C;
	nominal_voltage 7621.0;
}

object node:93 {
	name            node_93; // NodeID: 5785799
	phases          C;
	nominal_voltage 7621.0;
}

object node:94 {
	name            node_94; // NodeID: 5786264
	phases          C;
	nominal_voltage 7621.0;
}

object node:95 {
	name            node_95; // NodeID: 5774114
	phases          C;
	nominal_voltage 7621.0;
}

object node:96 {
	name            node_96; // NodeID: 5774586
	phases          C;
	nominal_voltage 7621.0;
}

object node:97 {
	name            node_97; // NodeID: 5776472
	phases          C;
	nominal_voltage 7621.0;
}

object node:98 {
	name            node_98; // NodeID: 5779304
	phases          C;
	nominal_voltage 7621.0;
}

object node:99 {
	name            node_99; // NodeID: 8219961
	phases          C;
	nominal_voltage 7621.0;
}

object node:101 {
	name            node_101; // NodeID: 5775055
	phases          C;
	nominal_voltage 7621.0;
}

object node:102 {
	name            node_102; // NodeID: 5775523
	phases          C;
	nominal_voltage 7621.0;
}

object node:103 {
	name            node_103; // NodeID: 5777396
	phases          C;
	nominal_voltage 7621.0;
}

object node:104 {
	name            node_104; // NodeID: 8219945
	phases          C;
	nominal_voltage 7621.0;
}

object node:105 {
	name            node_105; // NodeID: 8236110
	phases          C;
	nominal_voltage 7621.0;
}

object node:106 {
	name            node_106; // NodeID: 5777880
	phases          C;
	nominal_voltage 7621.0;
}

object node:107 {
	name            node_107; // NodeID: 8219949
	phases          C;
	nominal_voltage 7621.0;
}

object node:108 {
	name            node_108; // NodeID: 8236114
	phases          C;
	nominal_voltage 7621.0;
}

object node:109 {
	name            node_109; // NodeID: 5778362
	phases          C;
	nominal_voltage 7621.0;
}

object node:110 {
	name            node_110; // NodeID: 8219952
	phases          C;
	nominal_voltage 7621.0;
}

object node:111 {
	name            node_111; // NodeID: 8236117
	phases          C;
	nominal_voltage 7621.0;
}

object node:112 {
	name            node_112; // NodeID: 5778839
	phases          C;
	nominal_voltage 7621.0;
}

object node:113 {
	name            node_113; // NodeID: 5798179
	phases          C;
	nominal_voltage 7621.0;
}

object node:114 {
	name            node_114; // NodeID: 5764960
	phases          A;
	nominal_voltage 7621.0;
}

object node:115 {
	name            node_115; // NodeID: 5765444
	phases          A;
	nominal_voltage 7621.0;
}

object node:116 {
	name            node_116; // NodeID: 5766418
	phases          A;
	nominal_voltage 7621.0;
}

object node:117 {
	name            node_117; // NodeID: 5766906
	phases          A;
	nominal_voltage 7621.0;
}

object node:118 {
	name            node_118; // NodeID: 5767394
	phases          A;
	nominal_voltage 7621.0;
}

object node:119 {
	name            node_119; // NodeID: 5767876
	phases          A;
	nominal_voltage 7621.0;
}

object node:120 {
	name            node_120; // NodeID: 5768352
	phases          A;
	nominal_voltage 7621.0;
}

object node:121 {
	name            node_121; // NodeID: 5664993
	phases          ABC;
	nominal_voltage 7621.0;
}

object node:122 {
	name            node_122; // NodeID: 5666085
	phases          ABC;
	nominal_voltage 7621.0;
}

object node:123 {
	name            node_123; // NodeID: 5667702
	phases          ABC;
	nominal_voltage 7621.0;
}

object node:124 {
	name            node_124; // NodeID: 5668254
	phases          ABC;
	nominal_voltage 7621.0;
}

object node:125 {
	name            node_125; // NodeID: 5669889
	phases          ABC;
	nominal_voltage 7621.0;
}

object node:126 {
	name            node_126; // NodeID: 5664446
	phases          ABC;
	nominal_voltage 7621.0;
}

object node:127 {
	name            node_127; // NodeID: 5752567
	phases          ABC;
	nominal_voltage 7621.0;
}

object node:128 {
	name            node_128; // NodeID: 5753044
	phases          ABC;
	nominal_voltage 7621.0;
}

object node:129 {
	name            node_129; // NodeID: 5753517
	phases          ABC;
	nominal_voltage 7621.0;
}

object node:130 {
	name            node_130; // NodeID: 5753988
	phases          ABC;
	nominal_voltage 7621.0;
}

object node:131 {
	name            node_131; // NodeID: 5754462
	phases          ABC;
	nominal_voltage 7621.0;
}

object node:132 {
	name            node_132; // NodeID: 8147226
	phases          ABC;
	nominal_voltage 7621.0;
}

object node:133 {
	name            node_133; // NodeID: 8147227
	phases          ABC;
	nominal_voltage 7621.0;
}

object node:134 {
	name            node_134; // NodeID: 5755903
	phases          ABC;
	nominal_voltage 7621.0;
}

object node:135 {
	name            node_135; // NodeID: 5788540
	phases          ABC;
	nominal_voltage 7621.0;
}

object node:136 {
	name            node_136; // NodeID: 5788977
	phases          ABC;
	nominal_voltage 7621.0;
}

object node:137 {
	name            node_137; // NodeID: 5789434
	phases          ABC;
	nominal_voltage 7621.0;
}

object node:138 {
	name            node_138; // NodeID: 5792076
	phases          ABC;
	nominal_voltage 7621.0;
}

object node:139 {
	name            node_139; // NodeID: 5790321
	phases          ABC;
	nominal_voltage 7621.0;
}

object node:140 {
	name            node_140; // NodeID: 5610601
	phases          ABC;
	nominal_voltage 7621.0;
}

object node:141 {
	name            node_141; // NodeID: 5641566
	phases          ABC;
	nominal_voltage 7621.0;
}

object node:142 {
	name            node_142; // NodeID: 5642759
	phases          C;
	nominal_voltage 7621.0;
}

object node:143 {
	name            node_143; // NodeID: 5643372
	phases          C;
	nominal_voltage 7621.0;
}

object node:144 {
	name            node_144; // NodeID: 5644577
	phases          C;
	nominal_voltage 7621.0;
}

object node:145 {
	name            node_145; // NodeID: 5233883
	phases          C;
	nominal_voltage 7621.0;
}

object node:146 {
	name            node_146; // NodeID: 4731871
	phases          C;
	nominal_voltage 7621.0;
}

object node:147 {
	name            node_147; // NodeID: 4329397
	phases          C;
	nominal_voltage 7621.0;
}

object node:148 {
	name            node_148; // NodeID: 4334262
	phases          C;
	nominal_voltage 7621.0;
}

object node:149 {
	name            node_149; // NodeID: 4336684
	phases          C;
	nominal_voltage 7621.0;
}

object node:150 {
	name            node_150; // NodeID: 4339087
	phases          C;
	nominal_voltage 7621.0;
}

object node:151 {
	name            node_151; // NodeID: 4343881
	phases          C;
	nominal_voltage 7621.0;
}

object node:152 {
	name            node_152; // NodeID: 4346268
	phases          C;
	nominal_voltage 7621.0;
}

object node:153 {
	name            node_153; // NodeID: 4348674
	phases          C;
	nominal_voltage 7621.0;
}

object node:154 {
	name            node_154; // NodeID: 4351074
	phases          C;
	nominal_voltage 7621.0;
}

object node:155 {
	name            node_155; // NodeID: 5642157
	phases          ABC;
	nominal_voltage 7621.0;
}

object node:156 {
	name            node_156; // NodeID: 5635606
	phases          ABC;
	nominal_voltage 7621.0;
}

object node:157 {
	name            node_157; // NodeID: 5234961
	phases          ABC;
	nominal_voltage 7621.0;
}

object node:158 {
	name            node_158; // NodeID: 5232811
	phases          ABC;
	nominal_voltage 7621.0;
}

object node:159 {
	name            node_159; // NodeID: 5231745
	phases          ABC;
	nominal_voltage 7621.0;
}

object node:160 {
	name            node_160; // NodeID: 5230672
	phases          ABC;
	nominal_voltage 7621.0;
}

object node:161 {
	name            node_161; // NodeID: 5229601
	phases          ABC;
	nominal_voltage 7621.0;
}

object node:162 {
	name            node_162; // NodeID: 5228522
	phases          ABC;
	nominal_voltage 7621.0;
}

object node:163 {
	name            node_163; // NodeID: 5217551
	phases          ABC;
	nominal_voltage 7621.0;
}

object node:164 {
	name            node_164; // NodeID: 5214233
	phases          ABC;
	nominal_voltage 7621.0;
}

object node:165 {
	name            node_165; // NodeID: 5213126
	phases          ABC;
	nominal_voltage 7621.0;
}

object node:166 {
	name            node_166; // NodeID: 4730014
	phases          ABC;
	nominal_voltage 7621.0;
}

object node:167 {
	name            node_167; // NodeID: 4412410
	phases          ABC;
	nominal_voltage 7621.0;
}

object node:168 {
	name            node_168; // NodeID: 4414740
	phases          ABC;
	nominal_voltage 7621.0;
}

object node:169 {
	name            node_169; // NodeID: 4419364
	phases          ABC;
	nominal_voltage 7621.0;
}

object node:170 {
	name            node_170; // NodeID: 4559916
	phases          B;
	nominal_voltage 7621.0;
}

object node:171 {
	name            node_171; // NodeID: 4562024
	phases          B;
	nominal_voltage 7621.0;
}

object node:172 {
	name            node_172; // NodeID: 4696136
	phases          B;
	nominal_voltage 7621.0;
}

object node:173 {
	name            node_173; // NodeID: 4701835
	phases          B;
	nominal_voltage 7621.0;
}

object node:174 {
	name            node_174; // NodeID: 4744677
	phases          B;
	nominal_voltage 7621.0;
}

object node:175 {
	name            node_175; // NodeID: 8214454
	phases          B;
	nominal_voltage 7621.0;
}

object node:176 {
	name            node_176; // NodeID: 8234309
	phases          B;
	nominal_voltage 7621.0;
}

object node:177 {
	name            node_177; // NodeID: 5429760
	phases          B;
	nominal_voltage 7621.0;
}

object node:178 {
	name            node_178; // NodeID: 8217947
	phases          B;
	nominal_voltage 7621.0;
}

object node:179 {
	name            node_179; // NodeID: 8234317
	phases          B;
	nominal_voltage 7621.0;
}

object node:180 {
	name            node_180; // NodeID: 5430612
	phases          B;
	nominal_voltage 7621.0;
}

object node:181 {
	name            node_181; // NodeID: 5173742
	phases          B;
	nominal_voltage 7621.0;
}

object node:182 {
	name            node_182; // NodeID: 4694227
	phases          B;
	nominal_voltage 7621.0;
}

object node:183 {
	name            node_183; // NodeID: 4698031
	phases          B;
	nominal_voltage 7621.0;
}

object node:184 {
	name            node_184; // NodeID: 4746511
	phases          B;
	nominal_voltage 7621.0;
}

object node:185 {
	name            node_185; // NodeID: 5172585
	phases          B;
	nominal_voltage 7621.0;
}

object node:186 {
	name            node_186; // NodeID: 8216618
	phases          B;
	nominal_voltage 7621.0;
}

object node:188 {
	name            node_188; // NodeID: 4557813
	phases          ABC;
	nominal_voltage 7621.0;
}

object node:189 {
	name            node_189; // NodeID: 4423963
	phases          ABC;
	nominal_voltage 7621.0;
}

object node:190 {
	name            node_190; // NodeID: 4426263
	phases          ABC;
	nominal_voltage 7621.0;
}

object node:191 {
	name            node_191; // NodeID: 4428554
	phases          ABC;
	nominal_voltage 7621.0;
}

object node:192 {
	name            node_192; // NodeID: 4433133
	phases          ABC;
	nominal_voltage 7621.0;
}

object node:193 {
	name            node_193; // NodeID: 4501313
	phases          A;
	nominal_voltage 7621.0;
}

object node:194 {
	name            node_194; // NodeID: 4503540
	phases          A;
	nominal_voltage 7621.0;
}

object node:195 {
	name            node_195; // NodeID: 4507994
	phases          A;
	nominal_voltage 7621.0;
}

object node:196 {
	name            node_196; // NodeID: 4510201
	phases          A;
	nominal_voltage 7621.0;
}

object node:197 {
	name            node_197; // NodeID: 4512410
	phases          A;
	nominal_voltage 7621.0;
}

object node:198 {
	name            node_198; // NodeID: 4516815
	phases          A;
	nominal_voltage 7621.0;
}

object node:199 {
	name            node_199; // NodeID: 3352671
	phases          A;
	nominal_voltage 7621.0;
}

object node:200 {
	name            node_200; // NodeID: 3364359
	phases          A;
	nominal_voltage 7621.0;
}

object node:201 {
	name            node_201; // NodeID: 3368227
	phases          A;
	nominal_voltage 7621.0;
}

object node:202 {
	name            node_202; // NodeID: 3387489
	phases          A;
	nominal_voltage 7621.0;
}

object node:203 {
	name            node_203; // NodeID: 4348673
	phases          A;
	nominal_voltage 7621.0;
}

object node:204 {
	name            node_204; // NodeID: 8206849
	phases          A;
	nominal_voltage 7621.0;
}

object node:205 {
	name            node_205; // NodeID: 8230174
	phases          A;
	nominal_voltage 7621.0;
}

object node:206 {
	name            node_206; // NodeID: 4363029
	phases          A;
	nominal_voltage 7621.0;
}

object node:207 {
	name            node_207; // NodeID: 4370172
	phases          A;
	nominal_voltage 7621.0;
}

object node:208 {
	name            node_208; // NodeID: 3360474
	phases          A;
	nominal_voltage 7621.0;
}

object node:209 {
	name            node_209; // NodeID: 3375953
	phases          A;
	nominal_voltage 7621.0;
}

object node:210 {
	name            node_210; // NodeID: 3383663
	phases          A;
	nominal_voltage 7621.0;
}

object node:211 {
	name            node_211; // NodeID: 4319634
	phases          A;
	nominal_voltage 7621.0;
}

object node:212 {
	name            node_212; // NodeID: 8213111
	phases          A;
	nominal_voltage 7621.0;
}

object node:213 {
	name            node_213; // NodeID: 8230106
	phases          A;
	nominal_voltage 7621.0;
}

object node:214 {
	name            node_214; // NodeID: 4336683
	phases          A;
	nominal_voltage 7621.0;
}

object node:215 {
	name            node_215; // NodeID: 4339086
	phases          A;
	nominal_voltage 7621.0;
}

object node:216 {
	name            node_216; // NodeID: 4341493
	phases          A;
	nominal_voltage 7621.0;
}

object node:217 {
	name            node_217; // NodeID: 8213192
	phases          A;
	nominal_voltage 7621.0;
}

object node:219 {
	name            node_219; // NodeID: 4435439
	phases          ABC;
	nominal_voltage 7621.0;
}

object node:220 {
	name            node_220; // NodeID: 4437729
	phases          ABC;
	nominal_voltage 7621.0;
}

object node:221 {
	name            node_221; // NodeID: 4440044
	phases          ABC;
	nominal_voltage 7621.0;
}

object node:222 {
	name            node_222; // NodeID: 4474350
	phases          ABC;
	nominal_voltage 7621.0;
}

object node:223 {
	name            node_223; // NodeID: 5466919
	phases          ABC;
	nominal_voltage 7621.0;
}

object node:224 {
	name            node_224; // NodeID: 5465215
	phases          ABC;
	nominal_voltage 7621.0;
}

object node:225 {
	name            node_225; // NodeID: 5180590
	phases          ABC;
	nominal_voltage 7621.0;
}

object node:226 {
	name            node_226; // NodeID: 5187384
	phases          ABC;
	nominal_voltage 7621.0;
}

object node:227 {
	name            node_227; // NodeID: 5189651
	phases          ABC;
	nominal_voltage 7621.0;
}

object node:228 {
	name            node_228; // NodeID: 5216436
	phases          B;
	nominal_voltage 7621.0;
}

object node:229 {
	name            node_229; // NodeID: 5218667
	phases          B;
	nominal_voltage 7621.0;
}

object node:230 {
	name            node_230; // NodeID: 5215325
	phases          B;
	nominal_voltage 7621.0;
}

object node:231 {
	name            node_231; // NodeID: 5220869
	phases          B;
	nominal_voltage 7621.0;
}

object node:232 {
	name            node_232; // NodeID: 5221973
	phases          B;
	nominal_voltage 7621.0;
}

object node:233 {
	name            node_233; // NodeID: 5226356
	phases          B;
	nominal_voltage 7621.0;
}

object node:234 {
	name            node_234; // NodeID: 5227447
	phases          B;
	nominal_voltage 7621.0;
}

object node:235 {
	name            node_235; // NodeID: 5223059
	phases          B;
	nominal_voltage 7621.0;
}

object node:236 {
	name            node_236; // NodeID: 5224163
	phases          B;
	nominal_voltage 7621.0;
}

object node:237 {
	name            node_237; // NodeID: 5225255
	phases          B;
	nominal_voltage 7621.0;
}

object node:238 {
	name            node_238; // NodeID: 6335970
	phases          ABC;
	nominal_voltage 7621.0;
}

object node:239 {
	name            node_239; // NodeID: 6335982
	phases          ABC;
	nominal_voltage 7621.0;
}

object node:240 {
	name            node_240; // NodeID: 6336016
	phases          ABC;
	nominal_voltage 7621.0;
}

object node:241 {
	name            node_241; // NodeID: 5276010
	phases          ABC;
	nominal_voltage 7621.0;
}

object node:242 {
	name            node_242; // NodeID: 5277083
	phases          ABC;
	nominal_voltage 7621.0;
}

object node:243 {
	name            node_243; // NodeID: 5282475
	phases          ABC;
	nominal_voltage 7621.0;
}

object node:244 {
	name            node_244; // NodeID: 5283540
	phases          ABC;
	nominal_voltage 7621.0;
}

object node:245 {
	name            node_245; // NodeID: 5285676
	phases          ABC;
	nominal_voltage 7621.0;
}

object node:246 {
	name            node_246; // NodeID: 5287822
	phases          ABC;
	nominal_voltage 7621.0;
}

object node:247 {
	name            node_247; // NodeID: 5324172
	phases          ABC;
	nominal_voltage 7621.0;
}

object node:248 {
	name            node_248; // NodeID: 5322146
	phases          ABC;
	nominal_voltage 7621.0;
}

object node:249 {
	name            node_249; // NodeID: 5321114
	phases          ABC;
	nominal_voltage 7621.0;
}

object node:250 {
	name            node_250; // NodeID: 5320100
	phases          ABC;
	nominal_voltage 7621.0;
}

object node:251 {
	name            node_251; // NodeID: 5319087
	phases          ABC;
	nominal_voltage 7621.0;
}

object node:252 {
	name            node_252; // NodeID: 5318062
	phases          ABC;
	nominal_voltage 7621.0;
}

object node:253 {
	name            node_253; // NodeID: 5317046
	phases          ABC;
	nominal_voltage 7621.0;
}

object node:254 {
	name            node_254; // NodeID: 5316017
	phases          ABC;
	nominal_voltage 7621.0;
}

object node:255 {
	name            node_255; // NodeID: 5314996
	phases          ABC;
	nominal_voltage 7621.0;
}

object node:256 {
	name            node_256; // NodeID: 5313963
	phases          ABC;
	nominal_voltage 7621.0;
}

object node:257 {
	name            node_257; // NodeID: 5312926
	phases          ABC;
	nominal_voltage 7621.0;
}

object node:258 {
	name            node_258; // NodeID: 5311895
	phases          ABC;
	nominal_voltage 7621.0;
}

object node:259 {
	name            node_259; // NodeID: 5310861
	phases          ABC;
	nominal_voltage 7621.0;
}

object node:260 {
	name            node_260; // NodeID: 5325179
	phases          B;
	nominal_voltage 7621.0;
}

object node:261 {
	name            node_261; // NodeID: 5374303
	phases          B;
	nominal_voltage 7621.0;
}

object node:262 {
	name            node_262; // NodeID: 5373356
	phases          B;
	nominal_voltage 7621.0;
}

object node:263 {
	name            node_263; // NodeID: 5372394
	phases          B;
	nominal_voltage 7621.0;
}

object node:264 {
	name            node_264; // NodeID: 5371427
	phases          B;
	nominal_voltage 7621.0;
}

object node:265 {
	name            node_265; // NodeID: 5370469
	phases          B;
	nominal_voltage 7621.0;
}

object node:266 {
	name            node_266; // NodeID: 5369517
	phases          B;
	nominal_voltage 7621.0;
}

object node:267 {
	name            node_267; // NodeID: 5368556
	phases          B;
	nominal_voltage 7621.0;
}

object node:268 {
	name            node_268; // NodeID: 5367602
	phases          B;
	nominal_voltage 7621.0;
}

object node:269 {
	name            node_269; // NodeID: 5366637
	phases          B;
	nominal_voltage 7621.0;
}

object node:270 {
	name            node_270; // NodeID: 5365669
	phases          B;
	nominal_voltage 7621.0;
}

object node:271 {
	name            node_271; // NodeID: 5364711
	phases          B;