clock { timezone  EST+5EDT; starttime '2016-02-01 00:00:00'; stoptime '2016-02-08 00:00:00'; }
#set relax_naming_rules=1;
#set iteration_limit=9;
module powerflow { solver_method NR; }
module tape;

object node:1 {
name             node_1;
phases           ABC;
nominal_voltage  7621.0;
}

object load:101 {
name            load_1;
phases          ABC;
nominal_voltage 7621.0;
object player { file ./players/load_1_A.csv; property constant_power_A; };
object player { file ./players/load_1_B.csv; property constant_power_B; };
object player { file ./players/load_1_C.csv; property constant_power_C; };
}

object overhead_line:201 {
name          overhead_line_1;
from          node:1;
to            load:101;
phases        ABC;
configuration line_configuration:501;
length        1.0;
}

object line_configuration:501 {
	name line_configuration_1;
	z11  5.280e-03+5.280e-03j;
	z12  1.742e-03+1.742e-03j;
	z13  1.742e-03+1.742e-03j;
	z21  1.742e-03+1.742e-03j;
	z22  5.280e-03+5.280e-03j;
	z23  1.742e-03+1.742e-03j;
	z31  1.742e-03+1.742e-03j;
	z32  1.742e-03+1.742e-03j;
	z33  5.280e-03+5.280e-03j;
}

object node:2 {
name             node_2;
phases           ABC;
nominal_voltage  7621.0;
}

object load:102 {
name            load_2;
phases          ABC;
nominal_voltage 7621.0;
object player { file ./players/load_2_A.csv; property constant_power_A; };
object player { file ./players/load_2_B.csv; property constant_power_B; };
object player { file ./players/load_2_C.csv; property constant_power_C; };
}

object overhead_line:202 {
name          overhead_line_2;
from          node:2;
to            load:102;
phases        ABC;
configuration line_configuration:502;
length        1.0;
}

object line_configuration:502 {
	name line_configuration_2;
	z11  5.280e-03+5.280e-03j;
	z12  1.742e-03+1.742e-03j;
	z13  1.742e-03+1.742e-03j;
	z21  1.742e-03+1.742e-03j;
	z22  5.280e-03+5.280e-03j;
	z23  1.742e-03+1.742e-03j;
	z31  1.742e-03+1.742e-03j;
	z32  1.742e-03+1.742e-03j;
	z33  5.280e-03+5.280e-03j;
}

object node:3 {
name             node_3;
phases           ABC;
nominal_voltage  7621.0;
}

object load:103 {
name            load_3;
phases          ABC;
nominal_voltage 7621.0;
object player { file ./players/load_3_A.csv; property constant_power_A; };
object player { file ./players/load_3_B.csv; property constant_power_B; };
object player { file ./players/load_3_C.csv; property constant_power_C; };
}

object overhead_line:203 {
name          overhead_line_3;
from          node:3;
to            load:103;
phases        ABC;
configuration line_configuration:503;
length        1.0;
}

object line_configuration:503 {
	name line_configuration_3;
	z11  5.280e-03+5.280e-03j;
	z12  1.742e-03+1.742e-03j;
	z13  1.742e-03+1.742e-03j;
	z21  1.742e-03+1.742e-03j;
	z22  5.280e-03+5.280e-03j;
	z23  1.742e-03+1.742e-03j;
	z31  1.742e-03+1.742e-03j;
	z32  1.742e-03+1.742e-03j;
	z33  5.280e-03+5.280e-03j;
}

object node:4 {
name             node_4;
phases           C;
nominal_voltage  7621.0;
}

object load:104 {
name            load_4;
phases          C;
nominal_voltage 7621.0;
object player { file ./players/load_4_C.csv; property constant_power_C; };
}

object overhead_line:204 {
name          overhead_line_4;
from          node:4;
to            load:104;
phases        C;
configuration line_configuration:504;
length        1.0;
}

object line_configuration:504 {
	name line_configuration_4;
	z33  5.280e-03+5.280e-03j;
}

object node:5 {
name             node_5;
phases           ABC;
nominal_voltage  7621.0;
}

object load:105 {
name            load_5;
phases          ABC;
nominal_voltage 7621.0;
object player { file ./players/load_5_A.csv; property constant_power_A; };
object player { file ./players/load_5_B.csv; property constant_power_B; };
object player { file ./players/load_5_C.csv; property constant_power_C; };
}

object overhead_line:205 {
name          overhead_line_5;
from          node:5;
to            load:105;
phases        ABC;
configuration line_configuration:505;
length        1.0;
}

object line_configuration:505 {
	name line_configuration_5;
	z11  5.280e-03+5.280e-03j;
	z12  1.742e-03+1.742e-03j;
	z13  1.742e-03+1.742e-03j;
	z21  1.742e-03+1.742e-03j;
	z22  5.280e-03+5.280e-03j;
	z23  1.742e-03+1.742e-03j;
	z31  1.742e-03+1.742e-03j;
	z32  1.742e-03+1.742e-03j;
	z33  5.280e-03+5.280e-03j;
}

object node:6 {
name             node_6;
phases           B;
nominal_voltage  7621.0;
}

object load:106 {
name            load_6;
phases          B;
nominal_voltage 7621.0;
object player { file ./players/load_6_B.csv; property constant_power_B; };
}

object overhead_line:206 {
name          overhead_line_6;
from          node:6;
to            load:106;
phases        B;
configuration line_configuration:506;
length        1.0;
}

object line_configuration:506 {
	name line_configuration_6;
	z22  5.280e-03+5.280e-03j;
}

object node:7 {
name             node_7;
phases           ABC;
nominal_voltage  7621.0;
}

object load:107 {
name            load_7;
phases          ABC;
nominal_voltage 7621.0;
object player { file ./players/load_7_A.csv; property constant_power_A; };
object player { file ./players/load_7_B.csv; property constant_power_B; };
object player { file ./players/load_7_C.csv; property constant_power_C; };
}

object overhead_line:207 {
name          overhead_line_7;
from          node:7;
to            load:107;
phases        ABC;
configuration line_configuration:507;
length        1.0;
}

object line_configuration:507 {
	name line_configuration_7;
	z11  5.280e-03+5.280e-03j;
	z12  1.742e-03+1.742e-03j;
	z13  1.742e-03+1.742e-03j;
	z21  1.742e-03+1.742e-03j;
	z22  5.280e-03+5.280e-03j;
	z23  1.742e-03+1.742e-03j;
	z31  1.742e-03+1.742e-03j;
	z32  1.742e-03+1.742e-03j;
	z33  5.280e-03+5.280e-03j;
}

object node:8 {
name             node_8;
phases           ABC;
nominal_voltage  7621.0;
}

object load:108 {
name            load_8;
phases          ABC;
nominal_voltage 7621.0;
object player { file ./players/load_8_A.csv; property constant_power_A; };
object player { file ./players/load_8_B.csv; property constant_power_B; };
object player { file ./players/load_8_C.csv; property constant_power_C; };
}

object overhead_line:208 {
name          overhead_line_8;
from          node:8;
to            load:108;
phases        ABC;
configuration line_configuration:508;
length        1.0;
}

object line_configuration:508 {
	name line_configuration_8;
	z11  5.280e-03+5.280e-03j;
	z12  1.742e-03+1.742e-03j;
	z13  1.742e-03+1.742e-03j;
	z21  1.742e-03+1.742e-03j;
	z22  5.280e-03+5.280e-03j;
	z23  1.742e-03+1.742e-03j;
	z31  1.742e-03+1.742e-03j;
	z32  1.742e-03+1.742e-03j;
	z33  5.280e-03+5.280e-03j;
}

object node:9 {
name             node_9;
phases           ABC;
nominal_voltage  7621.0;
}

object load:109 {
name            load_9;
phases          ABC;
nominal_voltage 7621.0;
object player { file ./players/load_9_A.csv; property constant_power_A; };
object player { file ./players/load_9_B.csv; property constant_power_B; };
object player { file ./players/load_9_C.csv; property constant_power_C; };
}

object overhead_line:209 {
name          overhead_line_9;
from          node:9;
to            load:109;
phases        ABC;
configuration line_configuration:509;
length        1.0;
}

object line_configuration:509 {
	name line_configuration_9;
	z11  5.280e-03+5.280e-03j;
	z12  1.742e-03+1.742e-03j;
	z13  1.742e-03+1.742e-03j;
	z21  1.742e-03+1.742e-03j;
	z22  5.280e-03+5.280e-03j;
	z23  1.742e-03+1.742e-03j;
	z31  1.742e-03+1.742e-03j;
	z32  1.742e-03+1.742e-03j;
	z33  5.280e-03+5.280e-03j;
}

object node:10 {
name             node_10;
phases           ABC;
nominal_voltage  7621.0;
}

object load:110 {
name            load_10;
phases          ABC;
nominal_voltage 7621.0;
object player { file ./players/load_10_A.csv; property constant_power_A; };
object player { file ./players/load_10_B.csv; property constant_power_B; };
object player { file ./players/load_10_C.csv; property constant_power_C; };
}

object overhead_line:210 {
name          overhead_line_10;
from          node:10;
to            load:110;
phases        ABC;
configuration line_configuration:510;
length        1.0;
}

object line_configuration:510 {
	name line_configuration_10;
	z11  5.280e-03+5.280e-03j;
	z12  1.742e-03+1.742e-03j;
	z13  1.742e-03+1.742e-03j;
	z21  1.742e-03+1.742e-03j;
	z22  5.280e-03+5.280e-03j;
	z23  1.742e-03+1.742e-03j;
	z31  1.742e-03+1.742e-03j;
	z32  1.742e-03+1.742e-03j;
	z33  5.280e-03+5.280e-03j;
}

object node:11 {
name             node_11;
phases           ABC;
nominal_voltage  7621.0;
}

object load:111 {
name            load_11;
phases          ABC;
nominal_voltage 7621.0;
object player { file ./players/load_11_A.csv; property constant_power_A; };
object player { file ./players/load_11_B.csv; property constant_power_B; };
object player { file ./players/load_11_C.csv; property constant_power_C; };
}

object overhead_line:211 {
name          overhead_line_11;
from          node:11;
to            load:111;
phases        ABC;
configuration line_configuration:511;
length        1.0;
}

object line_configuration:511 {
	name line_configuration_11;
	z11  5.280e-03+5.280e-03j;
	z12  1.742e-03+1.742e-03j;
	z13  1.742e-03+1.742e-03j;
	z21  1.742e-03+1.742e-03j;
	z22  5.280e-03+5.280e-03j;
	z23  1.742e-03+1.742e-03j;
	z31  1.742e-03+1.742e-03j;
	z32  1.742e-03+1.742e-03j;
	z33  5.280e-03+5.280e-03j;
}

object node:12 {
name             node_12;
phases           ABC;
nominal_voltage  7621.0;
}

object load:112 {
name            load_12;
phases          ABC;
nominal_voltage 7621.0;
object player { file ./players/load_12_A.csv; property constant_power_A; };
object player { file ./players/load_12_B.csv; property constant_power_B; };
object player { file ./players/load_12_C.csv; property constant_power_C; };
}

object overhead_line:212 {
name          overhead_line_12;
from          node:12;
to            load:112;
phases        ABC;
configuration line_configuration:512;
length        1.0;
}

object line_configuration:512 {
	name line_configuration_12;
	z11  5.280e-03+5.280e-03j;
	z12  1.742e-03+1.742e-03j;
	z13  1.742e-03+1.742e-03j;
	z21  1.742e-03+1.742e-03j;
	z22  5.280e-03+5.280e-03j;
	z23  1.742e-03+1.742e-03j;
	z31  1.742e-03+1.742e-03j;
	z32  1.742e-03+1.742e-03j;
	z33  5.280e-03+5.280e-03j;
}

object node:13 {
name             node_13;
phases           ABC;
nominal_voltage  7621.0;
}

object load:113 {
name            load_13;
phases          ABC;
nominal_voltage 7621.0;
object player { file ./players/load_13_A.csv; property constant_power_A; };
object player { file ./players/load_13_B.csv; property constant_power_B; };
object player { file ./players/load_13_C.csv; property constant_power_C; };
}

object overhead_line:213 {
name          overhead_line_13;
from          node:13;
to            load:113;
phases        ABC;
configuration line_configuration:513;
length        1.0;
}

object line_configuration:513 {
	name line_configuration_13;
	z11  5.280e-03+5.280e-03j;
	z12  1.742e-03+1.742e-03j;
	z13  1.742e-03+1.742e-03j;
	z21  1.742e-03+1.742e-03j;
	z22  5.280e-03+5.280e-03j;
	z23  1.742e-03+1.742e-03j;
	z31  1.742e-03+1.742e-03j;
	z32  1.742e-03+1.742e-03j;
	z33  5.280e-03+5.280e-03j;
}

object node:14 {
name             node_14;
phases           ABC;
nominal_voltage  7621.0;
}

object load:114 {
name            load_14;
phases          ABC;
nominal_voltage 7621.0;
object player { file ./players/load_14_A.csv; property constant_power_A; };
object player { file ./players/load_14_B.csv; property constant_power_B; };
object player { file ./players/load_14_C.csv; property constant_power_C; };
}

object overhead_line:214 {
name          overhead_line_14;
from          node:14;
to            load:114;
phases        ABC;
configuration line_configuration:514;
length        1.0;
}

object line_configuration:514 {
	name line_configuration_14;
	z11  5.280e-03+5.280e-03j;
	z12  1.742e-03+1.742e-03j;
	z13  1.742e-03+1.742e-03j;
	z21  1.742e-03+1.742e-03j;
	z22  5.280e-03+5.280e-03j;
	z23  1.742e-03+1.742e-03j;
	z31  1.742e-03+1.742e-03j;
	z32  1.742e-03+1.742e-03j;
	z33  5.280e-03+5.280e-03j;
}

object node:15 {
name             node_15;
phases           ABC;
nominal_voltage  7621.0;
}

object load:115 {
name            load_15;
phases          ABC;
nominal_voltage 7621.0;
object player { file ./players/load_15_A.csv; property constant_power_A; };
object player { file ./players/load_15_B.csv; property constant_power_B; };
object player { file ./players/load_15_C.csv; property constant_power_C; };
}

object overhead_line:215 {
name          overhead_line_15;
from          node:15;
to            load:115;
phases        ABC;
configuration line_configuration:515;
length        1.0;
}

object line_configuration:515 {
	name line_configuration_15;
	z11  5.280e-03+5.280e-03j;
	z12  1.742e-03+1.742e-03j;
	z13  1.742e-03+1.742e-03j;
	z21  1.742e-03+1.742e-03j;
	z22  5.280e-03+5.280e-03j;
	z23  1.742e-03+1.742e-03j;
	z31  1.742e-03+1.742e-03j;
	z32  1.742e-03+1.742e-03j;
	z33  5.280e-03+5.280e-03j;
}

object node:16 {
name             node_16;
phases           ABC;
nominal_voltage  7621.0;
}

object load:116 {
name            load_16;
phases          ABC;
nominal_voltage 7621.0;
object player { file ./players/load_16_A.csv; property constant_power_A; };
object player { file ./players/load_16_B.csv; property constant_power_B; };
object player { file ./players/load_16_C.csv; property constant_power_C; };
}

object overhead_line:216 {
name          overhead_line_16;
from          node:16;
to            load:116;
phases        ABC;
configuration line_configuration:516;
length        1.0;
}

object line_configuration:516 {
	name line_configuration_16;
	z11  5.280e-03+5.280e-03j;
	z12  1.742e-03+1.742e-03j;
	z13  1.742e-03+1.742e-03j;
	z21  1.742e-03+1.742e-03j;
	z22  5.280e-03+5.280e-03j;
	z23  1.742e-03+1.742e-03j;
	z31  1.742e-03+1.742e-03j;
	z32  1.742e-03+1.742e-03j;
	z33  5.280e-03+5.280e-03j;
}

object node:17 {
name             node_17;
phases           ABC;
nominal_voltage  7621.0;
}

object load:117 {
name            load_17;
phases          ABC;
nominal_voltage 7621.0;
object player { file ./players/load_17_A.csv; property constant_power_A; };
object player { file ./players/load_17_B.csv; property constant_power_B; };
object player { file ./players/load_17_C.csv; property constant_power_C; };
}

object overhead_line:217 {
name          overhead_line_17;
from          node:17;
to            load:117;
phases        ABC;
configuration line_configuration:517;
length        1.0;
}

object line_configuration:517 {
	name line_configuration_17;
	z11  5.280e-03+5.280e-03j;
	z12  1.742e-03+1.742e-03j;
	z13  1.742e-03+1.742e-03j;
	z21  1.742e-03+1.742e-03j;
	z22  5.280e-03+5.280e-03j;
	z23  1.742e-03+1.742e-03j;
	z31  1.742e-03+1.742e-03j;
	z32  1.742e-03+1.742e-03j;
	z33  5.280e-03+5.280e-03j;
}

object node:18 {
name             node_18;
phases           ABC;
nominal_voltage  7621.0;
}

object load:118 {
name            load_18;
phases          ABC;
nominal_voltage 7621.0;
object player { file ./players/load_18_A.csv; property constant_power_A; };
object player { file ./players/load_18_B.csv; property constant_power_B; };
object player { file ./players/load_18_C.csv; property constant_power_C; };
}

object overhead_line:218 {
name          overhead_line_18;
from          node:18;
to            load:118;
phases        ABC;
configuration line_configuration:518;
length        1.0;
}

object line_configuration:518 {
	name line_configuration_18;
	z11  5.280e-03+5.280e-03j;
	z12  1.742e-03+1.742e-03j;
	z13  1.742e-03+1.742e-03j;
	z21  1.742e-03+1.742e-03j;
	z22  5.280e-03+5.280e-03j;
	z23  1.742e-03+1.742e-03j;
	z31  1.742e-03+1.742e-03j;
	z32  1.742e-03+1.742e-03j;
	z33  5.280e-03+5.280e-03j;
}

object node:19 {
name             node_19;
phases           C;
nominal_voltage  7621.0;
}

object load:119 {
name            load_19;
phases          C;
nominal_voltage 7621.0;
object player { file ./players/load_19_C.csv; property constant_power_C; };
}

object overhead_line:219 {
name          overhead_line_19;
from          node:19;
to            load:119;
phases        C;
configuration line_configuration:519;
length        1.0;
}

object line_configuration:519 {
	name line_configuration_19;
	z33  5.280e-03+5.280e-03j;
}

object node:20 {
name             node_20;
phases           ABC;
nominal_voltage  7621.0;
}

object load:120 {
name            load_20;
phases          ABC;
nominal_voltage 7621.0;
object player { file ./players/load_20_A.csv; property constant_power_A; };
object player { file ./players/load_20_B.csv; property constant_power_B; };
object player { file ./players/load_20_C.csv; property constant_power_C; };
}

object overhead_line:220 {
name          overhead_line_20;
from          node:20;
to            load:120;
phases        ABC;
configuration line_configuration:520;
length        1.0;
}

object line_configuration:520 {
	name line_configuration_20;
	z11  5.280e-03+5.280e-03j;
	z12  1.742e-03+1.742e-03j;
	z13  1.742e-03+1.742e-03j;
	z21  1.742e-03+1.742e-03j;
	z22  5.280e-03+5.280e-03j;
	z23  1.742e-03+1.742e-03j;
	z31  1.742e-03+1.742e-03j;
	z32  1.742e-03+1.742e-03j;
	z33  5.280e-03+5.280e-03j;
}

object node:21 {
name             node_21;
phases           ABC;
nominal_voltage  7621.0;
}

object load:121 {
name            load_21;
phases          ABC;
nominal_voltage 7621.0;
object player { file ./players/load_21_A.csv; property constant_power_A; };
object player { file ./players/load_21_B.csv; property constant_power_B; };
object player { file ./players/load_21_C.csv; property constant_power_C; };
}

object overhead_line:221 {
name          overhead_line_21;
from          node:21;
to            load:121;
phases        ABC;
configuration line_configuration:521;
length        1.0;
}

object line_configuration:521 {
	name line_configuration_21;
	z11  5.280e-03+5.280e-03j;
	z12  1.742e-03+1.742e-03j;
	z13  1.742e-03+1.742e-03j;
	z21  1.742e-03+1.742e-03j;
	z22  5.280e-03+5.280e-03j;
	z23  1.742e-03+1.742e-03j;
	z31  1.742e-03+1.742e-03j;
	z32  1.742e-03+1.742e-03j;
	z33  5.280e-03+5.280e-03j;
}

object node:22 {
name             node_22;
phases           ABC;
nominal_voltage  7621.0;
}

object load:122 {
name            load_22;
phases          ABC;
nominal_voltage 7621.0;
object player { file ./players/load_22_A.csv; property constant_power_A; };
object player { file ./players/load_22_B.csv; property constant_power_B; };
object player { file ./players/load_22_C.csv; property constant_power_C; };
}

object overhead_line:222 {
name          overhead_line_22;
from          node:22;
to            load:122;
phases        ABC;
configuration line_configuration:522;
length        1.0;
}

object line_configuration:522 {
	name line_configuration_22;
	z11  5.280e-03+5.280e-03j;
	z12  1.742e-03+1.742e-03j;
	z13  1.742e-03+1.742e-03j;
	z21  1.742e-03+1.742e-03j;
	z22  5.280e-03+5.280e-03j;
	z23  1.742e-03+1.742e-03j;
	z31  1.742e-03+1.742e-03j;
	z32  1.742e-03+1.742e-03j;
	z33  5.280e-03+5.280e-03j;
}

object node:23 {
name             node_23;
phases           ABC;
nominal_voltage  7621.0;
}

object load:123 {
name            load_23;
phases          ABC;
nominal_voltage 7621.0;
object player { file ./players/load_23_A.csv; property constant_power_A; };
object player { file ./players/load_23_B.csv; property constant_power_B; };
object player { file ./players/load_23_C.csv; property constant_power_C; };
}

object overhead_line:223 {
name          overhead_line_23;
from          node:23;
to            load:123;
phases        ABC;
configuration line_configuration:523;
length        1.0;
}

object line_configuration:523 {
	name line_configuration_23;
	z11  5.280e-03+5.280e-03j;
	z12  1.742e-03+1.742e-03j;
	z13  1.742e-03+1.742e-03j;
	z21  1.742e-03+1.742e-03j;
	z22  5.280e-03+5.280e-03j;
	z23  1.742e-03+1.742e-03j;
	z31  1.742e-03+1.742e-03j;
	z32  1.742e-03+1.742e-03j;
	z33  5.280e-03+5.280e-03j;
}

object node:24 {
name             node_24;
phases           ABC;
nominal_voltage  7621.0;
}

object load:124 {
name            load_24;
phases          ABC;
nominal_voltage 7621.0;
object player { file ./players/load_24_A.csv; property constant_power_A; };
object player { file ./players/load_24_B.csv; property constant_power_B; };
object player { file ./players/load_24_C.csv; property constant_power_C; };
}

object overhead_line:224 {
name          overhead_line_24;
from          node:24;
to            load:124;
phases        ABC;
configuration line_configuration:524;
length        1.0;
}

object line_configuration:524 {
	name line_configuration_24;
	z11  5.280e-03+5.280e-03j;
	z12  1.742e-03+1.742e-03j;
	z13  1.742e-03+1.742e-03j;
	z21  1.742e-03+1.742e-03j;
	z22  5.280e-03+5.280e-03j;
	z23  1.742e-03+1.742e-03j;
	z31  1.742e-03+1.742e-03j;
	z32  1.742e-03+1.742e-03j;
	z33  5.280e-03+5.280e-03j;
}

object node:25 {
name             node_25;
phases           B;
nominal_voltage  7621.0;
}

object load:125 {
name            load_25;
phases          B;
nominal_voltage 7621.0;
object player { file ./players/load_25_B.csv; property constant_power_B; };
}

object overhead_line:225 {
name          overhead_line_25;
from          node:25;
to            load:125;
phases        B;
configuration line_configuration:525;
length        1.0;
}

object line_configuration:525 {
	name line_configuration_25;
	z22  5.280e-03+5.280e-03j;
}

object node:26 {
name             node_26;
phases           ABC;
nominal_voltage  7621.0;
}

object load:126 {
name            load_26;
phases          ABC;
nominal_voltage 7621.0;
object player { file ./players/load_26_A.csv; property constant_power_A; };
object player { file ./players/load_26_B.csv; property constant_power_B; };
object player { file ./players/load_26_C.csv; property constant_power_C; };
}

object overhead_line:226 {
name          overhead_line_26;
from          node:26;
to            load:126;
phases        ABC;
configuration line_configuration:526;
length        1.0;
}

object line_configuration:526 {
	name line_configuration_26;
	z11  5.280e-03+5.280e-03j;
	z12  1.742e-03+1.742e-03j;
	z13  1.742e-03+1.742e-03j;
	z21  1.742e-03+1.742e-03j;
	z22  5.280e-03+5.280e-03j;
	z23  1.742e-03+1.742e-03j;
	z31  1.742e-03+1.742e-03j;
	z32  1.742e-03+1.742e-03j;
	z33  5.280e-03+5.280e-03j;
}

object node:27 {
name             node_27;
phases           B;
nominal_voltage  7621.0;
}

object load:127 {
name            load_27;
phases          B;
nominal_voltage 7621.0;
object player { file ./players/load_27_B.csv; property constant_power_B; };
}

object overhead_line:227 {
name          overhead_line_27;
from          node:27;
to            load:127;
phases        B;
configuration line_configuration:527;
length        1.0;
}

object line_configuration:527 {
	name line_configuration_27;
	z22  5.280e-03+5.280e-03j;
}

object node:28 {
name             node_28;
phases           ABC;
nominal_voltage  7621.0;
}

object load:128 {
name            load_28;
phases          ABC;
nominal_voltage 7621.0;
object player { file ./players/load_28_A.csv; property constant_power_A; };
object player { file ./players/load_28_B.csv; property constant_power_B; };
object player { file ./players/load_28_C.csv; property constant_power_C; };
}

object overhead_line:228 {
name          overhead_line_28;
from          node:28;
to            load:128;
phases        ABC;
configuration line_configuration:528;
length        1.0;
}

object line_configuration:528 {
	name line_configuration_28;
	z11  5.280e-03+5.280e-03j;
	z12  1.742e-03+1.742e-03j;
	z13  1.742e-03+1.742e-03j;
	z21  1.742e-03+1.742e-03j;
	z22  5.280e-03+5.280e-03j;
	z23  1.742e-03+1.742e-03j;
	z31  1.742e-03+1.742e-03j;
	z32  1.742e-03+1.742e-03j;
	z33  5.280e-03+5.280e-03j;
}

object node:29 {
name             node_29;
phases           ABC;
nominal_voltage  7621.0;
}

object load:129 {
name            load_29;
phases          ABC;
nominal_voltage 7621.0;
object player { file ./players/load_29_A.csv; property constant_power_A; };
object player { file ./players/load_29_B.csv; property constant_power_B; };
object player { file ./players/load_29_C.csv; property constant_power_C; };
}

object overhead_line:229 {
name          overhead_line_29;
from          node:29;
to            load:129;
phases        ABC;
configuration line_configuration:529;
length        1.0;
}

object line_configuration:529 {
	name line_configuration_29;
	z11  5.280e-03+5.280e-03j;
	z12  1.742e-03+1.742e-03j;
	z13  1.742e-03+1.742e-03j;
	z21  1.742e-03+1.742e-03j;
	z22  5.280e-03+5.280e-03j;
	z23  1.742e-03+1.742e-03j;
	z31  1.742e-03+1.742e-03j;
	z32  1.742e-03+1.742e-03j;
	z33  5.280e-03+5.280e-03j;
}

object node:30 {
name             node_30;
phases           ABC;
nominal_voltage  7621.0;
}

object load:130 {
name            load_30;
phases          ABC;
nominal_voltage 7621.0;
object player { file ./players/load_30_A.csv; property constant_power_A; };
object player { file ./players/load_30_B.csv; property constant_power_B; };
object player { file ./players/load_30_C.csv; property constant_power_C; };
}

object overhead_line:230 {
name          overhead_line_30;
from          node:30;
to            load:130;
phases        ABC;
configuration line_configuration:530;
length        1.0;
}

object line_configuration:530 {
	name line_configuration_30;
	z11  5.280e-03+5.280e-03j;
	z12  1.742e-03+1.742e-03j;
	z13  1.742e-03+1.742e-03j;
	z21  1.742e-03+1.742e-03j;
	z22  5.280e-03+5.280e-03j;
	z23  1.742e-03+1.742e-03j;
	z31  1.742e-03+1.742e-03j;
	z32  1.742e-03+1.742e-03j;
	z33  5.280e-03+5.280e-03j;
}

object node:31 {
name             node_31;
phases           ABC;
nominal_voltage  7621.0;
}

object load:131 {
name            load_31;
phases          ABC;
nominal_voltage 7621.0;
object player { file ./players/load_31_A.csv; property constant_power_A; };
object player { file ./players/load_31_B.csv; property constant_power_B; };
object player { file ./players/load_31_C.csv; property constant_power_C; };
}

object overhead_line:231 {
name          overhead_line_31;
from          node:31;
to            load:131;
phases        ABC;
configuration line_configuration:531;
length        1.0;
}

object line_configuration:531 {
	name line_configuration_31;
	z11  5.280e-03+5.280e-03j;
	z12  1.742e-03+1.742e-03j;
	z13  1.742e-03+1.742e-03j;
	z21  1.742e-03+1.742e-03j;
	z22  5.280e-03+5.280e-03j;
	z23  1.742e-03+1.742e-03j;
	z31  1.742e-03+1.742e-03j;
	z32  1.742e-03+1.742e-03j;
	z33  5.280e-03+5.280e-03j;
}

object node:32 {
name             node_32;
phases           ABC;
nominal_voltage  7621.0;
}

object load:132 {
name            load_32;
phases          ABC;
nominal_voltage 7621.0;
object player { file ./players/load_32_A.csv; property constant_power_A; };
object player { file ./players/load_32_B.csv; property constant_power_B; };
object player { file ./players/load_32_C.csv; property constant_power_C; };
}

object overhead_line:232 {
name          overhead_line_32;
from          node:32;
to            load:132;
phases        ABC;
configuration line_configuration:532;
length        1.0;
}

object line_configuration:532 {
	name line_configuration_32;
	z11  5.280e-03+5.280e-03j;
	z12  1.742e-03+1.742e-03j;
	z13  1.742e-03+1.742e-03j;
	z21  1.742e-03+1.742e-03j;
	z22  5.280e-03+5.280e-03j;
	z23  1.742e-03+1.742e-03j;
	z31  1.742e-03+1.742e-03j;
	z32  1.742e-03+1.742e-03j;
	z33  5.280e-03+5.280e-03j;
}

object node:33 {
name             node_33;
phases           ABC;
nominal_voltage  7621.0;
}

object load:133 {
name            load_33;
phases          ABC;
nominal_voltage 7621.0;
object player { file ./players/load_33_A.csv; property constant_power_A; };
object player { file ./players/load_33_B.csv; property constant_power_B; };
object player { file ./players/load_33_C.csv; property constant_power_C; };
}

object overhead_line:233 {
name          overhead_line_33;
from          node:33;
to            load:133;
phases        ABC;
configuration line_configuration:533;
length        1.0;
}

object line_configuration:533 {
	name line_configuration_33;
	z11  5.280e-03+5.280e-03j;
	z12  1.742e-03+1.742e-03j;
	z13  1.742e-03+1.742e-03j;
	z21  1.742e-03+1.742e-03j;
	z22  5.280e-03+5.280e-03j;
	z23  1.742e-03+1.742e-03j;
	z31  1.742e-03+1.742e-03j;
	z32  1.742e-03+1.742e-03j;
	z33  5.280e-03+5.280e-03j;
}

object node:34 {
name             node_34;
phases           ABC;
nominal_voltage  7621.0;
}

object load:134 {
name            load_34;
phases          ABC;
nominal_voltage 7621.0;
object player { file ./players/load_34_A.csv; property constant_power_A; };
object player { file ./players/load_34_B.csv; property constant_power_B; };
object player { file ./players/load_34_C.csv; property constant_power_C; };
}

object overhead_line:234 {
name          overhead_line_34;
from          node:34;
to            load:134;
phases        ABC;
configuration line_configuration:534;
length        1.0;
}

object line_configuration:534 {
	name line_configuration_34;
	z11  5.280e-03+5.280e-03j;
	z12  1.742e-03+1.742e-03j;
	z13  1.742e-03+1.742e-03j;
	z21  1.742e-03+1.742e-03j;
	z22  5.280e-03+5.280e-03j;
	z23  1.742e-03+1.742e-03j;
	z31  1.742e-03+1.742e-03j;
	z32  1.742e-03+1.742e-03j;
	z33  5.280e-03+5.280e-03j;
}

object node:35 {
name             node_35;
phases           ABC;
nominal_voltage  7621.0;
}

object load:135 {
name            load_35;
phases          ABC;
nominal_voltage 7621.0;
object player { file ./players/load_35_A.csv; property constant_power_A; };
object player { file ./players/load_35_B.csv; property constant_power_B; };
object player { file ./players/load_35_C.csv; property constant_power_C; };
}

object overhead_line:235 {
name          overhead_line_35;
from          node:35;
to            load:135;
phases        ABC;
configuration line_configuration:535;
length        1.0;
}

object line_configuration:535 {
	name line_configuration_35;
	z11  5.280e-03+5.280e-03j;
	z12  1.742e-03+1.742e-03j;
	z13  1.742e-03+1.742e-03j;